miqcp/testcases/nesta_case30_fsr__sad.m
%%%%%%%%%%%%%%%%%%%%%%%%%%%%%%%%%%%%%%%%%%%%%%%%%%%%%%%%%%%%%%%%%%%%%%%%%%%
%%%%                                                                  %%%%%
%%%%      NICTA Energy System Test Case Archive (NESTA) - v0.7.0      %%%%%
%%%%           Optimal Power Flow - Small Angle Difference            %%%%%
%%%%                         05 - June - 2017                         %%%%%
%%%%                                                                  %%%%%
%%%%%%%%%%%%%%%%%%%%%%%%%%%%%%%%%%%%%%%%%%%%%%%%%%%%%%%%%%%%%%%%%%%%%%%%%%%
function mpc = nesta_case30_fsr__sad
mpc.version = '2';
mpc.baseMVA = 100.0;

%% area data
%	area	refbus
mpc.areas = [
	1	 8;
	2	 23;
	3	 26;
];

%% bus data
%	bus_i	type	Pd	Qd	Gs	Bs	area	Vm	Va	baseKV	zone	Vmax	Vmin
mpc.bus = [
	1	 3	 0.0	 0.0	 0.0	 0.0	 1	    1.00362	    0.00000	 135.0	 1	    1.05000	    0.95000;
	2	 2	 21.7	 12.7	 0.0	 0.0	 1	    1.00363	   -0.76419	 135.0	 1	    1.10000	    0.95000;
	3	 1	 2.4	 1.2	 0.0	 0.0	 1	    0.99181	   -2.02719	 135.0	 1	    1.05000	    0.95000;
	4	 1	 7.6	 1.6	 0.0	 0.0	 1	    0.98909	   -2.39191	 135.0	 1	    1.05000	    0.95000;
	5	 1	 0.0	 0.0	 0.0	 0.19	 1	    0.98977	   -2.29669	 135.0	 1	    1.05000	    0.95000;
	6	 1	 0.0	 0.0	 0.0	 0.0	 1	    0.98410	   -2.79138	 135.0	 1	    1.05000	    0.95000;
	7	 1	 22.8	 10.9	 0.0	 0.0	 1	    0.97734	   -3.13402	 135.0	 1	    1.05000	    0.95000;
	8	 1	 30.0	 30.0	 0.0	 0.0	 1	    0.97206	   -3.23996	 135.0	 1	    1.05000	    0.95000;
	9	 1	 0.0	 0.0	 0.0	 0.0	 1	    0.98709	   -3.55612	 135.0	 1	    1.05000	    0.95000;
	10	 1	 5.8	 2.0	 0.0	 0.0	 3	    0.98873	   -3.95865	 135.0	 1	    1.05000	    0.95000;
	11	 1	 0.0	 0.0	 0.0	 0.0	 1	    0.98709	   -3.55612	 135.0	 1	    1.05000	    0.95000;
	12	 1	 11.2	 7.5	 0.0	 0.0	 2	    0.99801	   -3.58107	 135.0	 1	    1.05000	    0.95000;
	13	 2	 0.0	 0.0	 0.0	 0.0	 2	    1.02150	   -2.11804	 135.0	 1	    1.10000	    0.95000;
	14	 1	 6.2	 1.6	 0.0	 0.0	 2	    0.98886	   -4.13679	 135.0	 1	    1.05000	    0.95000;
	15	 1	 8.2	 2.5	 0.0	 0.0	 2	    0.99328	   -3.95498	 135.0	 1	    1.05000	    0.95000;
	16	 1	 3.5	 1.8	 0.0	 0.0	 2	    0.98658	   -4.05092	 135.0	 1	    1.05000	    0.95000;
	17	 1	 9.0	 5.8	 0.0	 0.0	 2	    0.98248	   -4.21996	 135.0	 1	    1.05000	    0.95000;
	18	 1	 3.2	 0.9	 0.0	 0.0	 2	    0.97888	   -4.72043	 135.0	 1	    1.05000	    0.95000;
	19	 1	 9.5	 3.4	 0.0	 0.0	 2	    0.97365	   -4.96711	 135.0	 1	    1.05000	    0.95000;
	20	 1	 2.2	 0.7	 0.0	 0.0	 2	    0.97659	   -4.77722	 135.0	 1	    1.05000	    0.95000;
	21	 1	 17.5	 11.2	 0.0	 0.0	 3	    0.99483	   -3.86829	 135.0	 1	    1.05000	    0.95000;
	22	 2	 0.0	 0.0	 0.0	 0.0	 3	    1.00148	   -3.67953	 135.0	 1	    1.10000	    0.95000;
	23	 2	 3.2	 1.6	 0.0	 0.0	 2	    1.01538	   -2.85204	 135.0	 1	    1.10000	    0.95000;
	24	 1	 8.7	 6.7	 0.0	 0.04	 3	    1.00608	   -3.19800	 135.0	 1	    1.05000	    0.95000;
	25	 1	 0.0	 0.0	 0.0	 0.0	 3	    1.03974	   -1.85101	 135.0	 1	    1.05000	    0.95000;
	26	 1	 3.5	 2.3	 0.0	 0.0	 3	    1.02246	   -2.25247	 135.0	 1	    1.05000	    0.95000;
	27	 2	 0.0	 0.0	 0.0	 0.0	 3	    1.06891	   -0.77379	 135.0	 1	    1.10000	    0.95000;
	28	 1	 0.0	 0.0	 0.0	 0.0	 1	    0.99216	   -2.80098	 135.0	 1	    1.05000	    0.95000;
	29	 1	 2.4	 0.9	 0.0	 0.0	 3	    1.05000	   -1.89899	 135.0	 1	    1.05000	    0.95000;
	30	 1	 10.6	 1.9	 0.0	 0.0	 3	    1.03906	   -2.70444	 135.0	 1	    1.05000	    0.95000;
];

%% generator data
%	bus	Pg	Qg	Qmax	Qmin	Vg	mBase	status	Pmax	Pmin	Pc1	Pc2	Qc1min	Qc1max	Qc2min	Qc2max	ramp_agc	ramp_10	ramp_30	ramp_q	apf
mpc.gen = [
	1	 40.554	 -7.281	 250.0	 -20.0	 1.00362	 100.0	 1	 80.0	 0.0	 0.0	 0.0	 0.0	 0.0	 0.0	 0.0	 0.0	 0.0	 0.0	 0.0	 0.0;
	2	 53.53	 26.855	 100.0	 -20.0	 1.00363	 100.0	 1	 80.0	 0.0	 0.0	 0.0	 0.0	 0.0	 0.0	 0.0	 0.0	 0.0	 0.0	 0.0	 0.0;
	22	 23.833	 23.238	 80.0	 -15.0	 1.00148	 100.0	 1	 50.0	 0.0	 0.0	 0.0	 0.0	 0.0	 0.0	 0.0	 0.0	 0.0	 0.0	 0.0	 0.0;
	27	 36.766	 31.85	 60.0	 -15.0	 1.06891	 100.0	 1	 55.0	 0.0	 0.0	 0.0	 0.0	 0.0	 0.0	 0.0	 0.0	 0.0	 0.0	 0.0	 0.0;
	23	 18.6	 8.704	 50.0	 -10.0	 1.01538	 100.0	 1	 30.0	 0.0	 0.0	 0.0	 0.0	 0.0	 0.0	 0.0	 0.0	 0.0	 0.0	 0.0	 0.0;
	13	 18.592	 17.379	 60.0	 -15.0	 1.0215	 100.0	 1	 40.0	 0.0	 0.0	 0.0	 0.0	 0.0	 0.0	 0.0	 0.0	 0.0	 0.0	 0.0	 0.0;
];

%% generator cost data
%	2	startup	shutdown	n	c(n-1)	...	c0
mpc.gencost = [
	2	 0.0	 0.0	 3	   0.020000	   2.000000	   0.000000;
	2	 0.0	 0.0	 3	   0.017500	   1.750000	   0.000000;
	2	 0.0	 0.0	 3	   0.062500	   1.000000	   0.000000;
	2	 0.0	 0.0	 3	   0.008340	   3.250000	   0.000000;
	2	 0.0	 0.0	 3	   0.025000	   3.000000	   0.000000;
	2	 0.0	 0.0	 3	   0.025000	   3.000000	   0.000000;
];

%% branch data
%	fbus	tbus	r	x	b	rateA	rateB	rateC	ratio	angle	status	angmin	angmax
mpc.branch = [
	1	 2	 0.0192	 0.0575	 0.0264	 130.0	 130.0	 130.0	 0.0	 0.0	 1	 -2.027187	 2.027187;
	1	 3	 0.0452	 0.1852	 0.0204	 130.0	 130.0	 130.0	 0.0	 0.0	 1	 -2.027187	 2.027187;
	2	 4	 0.057	 0.1737	 0.0184	 65.0	 65.0	 65.0	 0.0	 0.0	 1	 -2.027187	 2.027187;
	3	 4	 0.0132	 0.0379	 0.0042	 130.0	 130.0	 130.0	 0.0	 0.0	 1	 -2.027187	 2.027187;
	2	 5	 0.0472	 0.1983	 0.0209	 130.0	 130.0	 130.0	 0.0	 0.0	 1	 -2.027187	 2.027187;
	2	 6	 0.0581	 0.1763	 0.0187	 65.0	 65.0	 65.0	 0.0	 0.0	 1	 -2.027187	 2.027187;
	4	 6	 0.0119	 0.0414	 0.0045	 90.0	 90.0	 90.0	 0.0	 0.0	 1	 -2.027187	 2.027187;
	5	 7	 0.046	 0.116	 0.0102	 70.0	 70.0	 70.0	 0.0	 0.0	 1	 -2.027187	 2.027187;
	6	 7	 0.0267	 0.082	 0.0085	 130.0	 130.0	 130.0	 0.0	 0.0	 1	 -2.027187	 2.027187;
	6	 8	 0.012	 0.042	 0.0045	 32.0	 32.0	 32.0	 0.0	 0.0	 1	 -2.027187	 2.027187;
	6	 9	 0.0	 0.208	 0.0	 65.0	 65.0	 65.0	 0.0	 0.0	 1	 -2.027187	 2.027187;
	6	 10	 0.0	 0.556	 0.0	 32.0	 32.0	 32.0	 0.0	 0.0	 1	 -2.027187	 2.027187;
	9	 11	 0.0	 0.208	 0.0	 65.0	 65.0	 65.0	 0.0	 0.0	 1	 -2.027187	 2.027187;
	9	 10	 0.0	 0.11	 0.0	 65.0	 65.0	 65.0	 0.0	 0.0	 1	 -2.027187	 2.027187;
	4	 12	 0.0	 0.256	 0.0	 65.0	 65.0	 65.0	 0.0	 0.0	 1	 -2.027187	 2.027187;
	12	 13	 0.0	 0.14	 0.0	 65.0	 65.0	 65.0	 0.0	 0.0	 1	 -2.027187	 2.027187;
	12	 14	 0.1231	 0.2559	 0.0	 32.0	 32.0	 32.0	 0.0	 0.0	 1	 -2.027187	 2.027187;
	12	 15	 0.0662	 0.1304	 0.0	 32.0	 32.0	 32.0	 0.0	 0.0	 1	 -2.027187	 2.027187;
	12	 16	 0.0945	 0.1987	 0.0	 32.0	 32.0	 32.0	 0.0	 0.0	 1	 -2.027187	 2.027187;
	14	 15	 0.221	 0.1997	 0.0	 16.0	 16.0	 16.0	 0.0	 0.0	 1	 -2.027187	 2.027187;
	16	 17	 0.0824	 0.1932	 0.0	 16.0	 16.0	 16.0	 0.0	 0.0	 1	 -2.027187	 2.027187;
	15	 18	 0.107	 0.2185	 0.0	 16.0	 16.0	 16.0	 0.0	 0.0	 1	 -2.027187	 2.027187;
	18	 19	 0.0639	 0.1292	 0.0	 16.0	 16.0	 16.0	 0.0	 0.0	 1	 -2.027187	 2.027187;
	19	 20	 0.034	 0.068	 0.0	 32.0	 32.0	 32.0	 0.0	 0.0	 1	 -2.027187	 2.027187;
	10	 20	 0.0936	 0.209	 0.0	 32.0	 32.0	 32.0	 0.0	 0.0	 1	 -2.027187	 2.027187;
	10	 17	 0.0324	 0.0845	 0.0	 32.0	 32.0	 32.0	 0.0	 0.0	 1	 -2.027187	 2.027187;
	10	 21	 0.0348	 0.0749	 0.0	 32.0	 32.0	 32.0	 0.0	 0.0	 1	 -2.027187	 2.027187;
	10	 22	 0.0727	 0.1499	 0.0	 32.0	 32.0	 32.0	 0.0	 0.0	 1	 -2.027187	 2.027187;
	21	 22	 0.0116	 0.0236	 0.0	 32.0	 32.0	 32.0	 0.0	 0.0	 1	 -2.027187	 2.027187;
	15	 23	 0.1	 0.202	 0.0	 16.0	 16.0	 16.0	 0.0	 0.0	 1	 -2.027187	 2.027187;
	22	 24	 0.115	 0.179	 0.0	 16.0	 16.0	 16.0	 0.0	 0.0	 1	 -2.027187	 2.027187;
	23	 24	 0.132	 0.27	 0.0	 16.0	 16.0	 16.0	 0.0	 0.0	 1	 -2.027187	 2.027187;
	24	 25	 0.1885	 0.3292	 0.0	 16.0	 16.0	 16.0	 0.0	 0.0	 1	 -2.027187	 2.027187;
	25	 26	 0.2544	 0.38	 0.0	 16.0	 16.0	 16.0	 0.0	 0.0	 1	 -2.027187	 2.027187;
	25	 27	 0.1093	 0.2087	 0.0	 16.0	 16.0	 16.0	 0.0	 0.0	 1	 -2.027187	 2.027187;
	28	 27	 0.0	 0.396	 0.0	 65.0	 65.0	 65.0	 0.0	 0.0	 1	 -2.027187	 2.027187;
	27	 29	 0.2198	 0.4153	 0.0	 16.0	 16.0	 16.0	 0.0	 0.0	 1	 -2.027187	 2.027187;
	27	 30	 0.3202	 0.6027	 0.0	 16.0	 16.0	 16.0	 0.0	 0.0	 1	 -2.027187	 2.027187;
	29	 30	 0.2399	 0.4533	 0.0	 16.0	 16.0	 16.0	 0.0	 0.0	 1	 -2.027187	 2.027187;
	8	 28	 0.0636	 0.2	 0.0214	 32.0	 32.0	 32.0	 0.0	 0.0	 1	 -2.027187	 2.027187;
	6	 28	 0.0169	 0.0599	 0.0065	 32.0	 32.0	 32.0	 0.0	 0.0	 1	 -2.027187	 2.027187;
];

% INFO    : === Translation Options ===
% INFO    : Phase Angle Bound:           2.027187 (deg.)
% INFO    : AC OPF Solution File:        ./nesta_case30_fsr__sad.m.opf.sol
% INFO    : 
% INFO    : === Voltage Setpoint Replacement Notes ===
% INFO    : Bus 1	: V=1.00335, theta=-0.0 -> V=1.00362, theta=0.0
% INFO    : Bus 2	: V=0.99966, theta=-0.70884 -> V=1.00363, theta=-0.76419
% INFO    : Bus 3	: V=0.99603, theta=-2.24263 -> V=0.99181, theta=-2.02719
% INFO    : Bus 4	: V=0.9942, theta=-2.65641 -> V=0.98909, theta=-2.39191
% INFO    : Bus 5	: V=0.99024, theta=-2.37332 -> V=0.98977, theta=-2.29669
% INFO    : Bus 6	: V=0.98893, theta=-3.03237 -> V=0.9841, theta=-2.79138
% INFO    : Bus 7	: V=0.98036, theta=-3.30889 -> V=0.97734, theta=-3.13402
% INFO    : Bus 8	: V=0.97689, theta=-3.471 -> V=0.97206, theta=-3.23996
% INFO    : Bus 9	: V=1.00245, theta=-3.93599 -> V=0.98709, theta=-3.55612
% INFO    : Bus 10	: V=1.0097, theta=-4.40402 -> V=0.98873, theta=-3.95865
% INFO    : Bus 11	: V=1.00245, theta=-3.93599 -> V=0.98709, theta=-3.55612
% INFO    : Bus 12	: V=1.02739, theta=-4.2815 -> V=0.99801, theta=-3.58107
% INFO    : Bus 13	: V=1.0707, theta=-3.07881 -> V=1.0215, theta=-2.11804
% INFO    : Bus 14	: V=1.01651, theta=-4.81366 -> V=0.98886, theta=-4.13679
% INFO    : Bus 15	: V=1.01885, theta=-4.604 -> V=0.99328, theta=-3.95498
% INFO    : Bus 16	: V=1.01265, theta=-4.62277 -> V=0.98658, theta=-4.05092
% INFO    : Bus 17	: V=1.00513, theta=-4.69101 -> V=0.98248, theta=-4.21996
% INFO    : Bus 18	: V=1.00315, theta=-5.26224 -> V=0.97888, theta=-4.72043
% INFO    : Bus 19	: V=0.99707, theta=-5.45474 -> V=0.97365, theta=-4.96711
% INFO    : Bus 20	: V=0.99942, theta=-5.25088 -> V=0.97659, theta=-4.77722
% INFO    : Bus 21	: V=1.01771, theta=-4.42706 -> V=0.99483, theta=-3.86829
% INFO    : Bus 22	: V=1.02486, theta=-4.28191 -> V=1.00148, theta=-3.67953
% INFO    : Bus 23	: V=1.03423, theta=-3.57128 -> V=1.01538, theta=-2.85204
% INFO    : Bus 24	: V=1.02406, theta=-3.73092 -> V=1.00608, theta=-3.198
% INFO    : Bus 25	: V=1.04664, theta=-2.06649 -> V=1.03974, theta=-1.85101
% INFO    : Bus 26	: V=1.02948, theta=-2.46258 -> V=1.02246, theta=-2.25247
% INFO    : Bus 27	: V=1.06891, theta=-0.8018 -> V=1.06891, theta=-0.77379
% INFO    : Bus 28	: V=0.99657, theta=-3.00866 -> V=0.99216, theta=-2.80098
% INFO    : Bus 29	: V=1.05, theta=-1.92701 -> V=1.05, theta=-1.89899
% INFO    : Bus 30	: V=1.03906, theta=-2.73245 -> V=1.03906, theta=-2.70444
% INFO    : 
% INFO    : === Generator Setpoint Replacement Notes ===
% INFO    : Gen at bus 1	: Pg=42.329, Qg=-3.651 -> Pg=40.554, Qg=-7.281
% INFO    : Gen at bus 1	: Vg=1.00335 -> Vg=1.00362
% INFO    : Gen at bus 2	: Pg=56.274, Qg=7.266 -> Pg=53.53, Qg=26.855
% INFO    : Gen at bus 2	: Vg=0.99966 -> Vg=1.00363
% INFO    : Gen at bus 22	: Pg=22.797, Qg=31.289 -> Pg=23.833, Qg=23.238
% INFO    : Gen at bus 22	: Vg=1.02486 -> Vg=1.00148
% INFO    : Gen at bus 27	: Pg=37.64, Qg=27.196 -> Pg=36.766, Qg=31.85
% INFO    : Gen at bus 27	: Vg=1.06891 -> Vg=1.06891
% INFO    : Gen at bus 23	: Pg=16.336, Qg=6.969 -> Pg=18.6, Qg=8.704
% INFO    : Gen at bus 23	: Vg=1.03423 -> Vg=1.01538
% INFO    : Gen at bus 13	: Pg=16.492, Qg=33.295 -> Pg=18.592, Qg=17.379
% INFO    : Gen at bus 13	: Vg=1.0707 -> Vg=1.0215
% INFO    : 
% INFO    : === Writing Matpower Case File Notes ===
